Version 4
SHEET 1 880 680
WIRE -48 0 -112 0
WIRE 96 0 32 0
WIRE 368 0 96 0
WIRE -112 48 -112 0
WIRE 208 48 208 32
WIRE 208 144 208 128
WIRE 96 160 96 0
WIRE 176 160 96 160
WIRE 368 176 368 0
WIRE 368 176 240 176
WIRE 528 176 368 176
WIRE -144 192 -208 192
WIRE -48 192 -64 192
WIRE -16 192 -48 192
WIRE 96 192 64 192
WIRE 176 192 96 192
WIRE -208 208 -208 192
WIRE -48 224 -48 192
WIRE 96 224 96 192
WIRE 208 224 208 208
WIRE 96 304 96 288
WIRE 208 304 96 304
WIRE -208 320 -208 288
WIRE 208 320 208 304
WIRE -48 368 -48 288
WIRE 368 368 368 176
WIRE 368 368 -48 368
FLAG 208 32 0
FLAG 208 320 0
FLAG 528 176 vout
IOPIN 528 176 Out
FLAG -208 320 0
FLAG -112 48 0
SYMBOL OpAmps\\LM741 208 112 R0
SYMATTR InstName U1
SYMBOL Misc\\battery 208 144 R180
WINDOW 0 24 104 Left 2
WINDOW 3 24 16 Left 2
WINDOW 123 0 0 Left 0
WINDOW 39 0 0 Left 0
SYMATTR InstName V1
SYMATTR Value 12
SYMBOL Misc\\battery 208 320 R180
WINDOW 0 24 104 Left 2
WINDOW 3 24 16 Left 2
WINDOW 123 0 0 Left 0
WINDOW 39 0 0 Left 0
SYMATTR InstName V2
SYMATTR Value 12
SYMBOL cap 80 224 R0
SYMATTR InstName C1
SYMATTR Value 0.31µ
SYMBOL cap -64 224 R0
SYMATTR InstName C2
SYMATTR Value 0.31µ
SYMBOL res 80 176 R90
WINDOW 0 0 56 VBottom 2
WINDOW 3 32 56 VTop 2
SYMATTR InstName R1
SYMATTR Value 1k
SYMBOL res -48 176 R90
WINDOW 0 0 56 VBottom 2
WINDOW 3 32 56 VTop 2
SYMATTR InstName R2
SYMATTR Value 1k
SYMBOL voltage -208 192 R0
WINDOW 3 24 152 Left 2
WINDOW 123 24 124 Left 2
WINDOW 39 0 0 Left 0
SYMATTR InstName V3
SYMATTR Value SINE(0 5 2500)
SYMBOL res 48 -16 R90
WINDOW 0 0 56 VBottom 2
WINDOW 3 32 56 VTop 2
SYMATTR InstName R3
SYMATTR Value 1k
TEXT -242 374 Left 2 !.tran 0.01
