Version 4
SHEET 1 1036 680
WIRE -16 -48 -48 -48
WIRE 112 -48 64 -48
WIRE 208 -48 112 -48
WIRE 384 -48 288 -48
WIRE 224 32 224 16
WIRE -48 80 -48 -48
WIRE 224 128 224 112
WIRE 112 144 112 -48
WIRE 192 144 112 144
WIRE 384 160 384 -48
WIRE 384 160 256 160
WIRE 416 160 384 160
WIRE -144 176 -240 176
WIRE -48 176 -80 176
WIRE 16 176 -48 176
WIRE 112 176 80 176
WIRE 192 176 112 176
WIRE -48 208 -48 176
WIRE 112 208 112 176
WIRE 224 208 224 192
WIRE -240 224 -240 176
WIRE 224 304 224 288
WIRE 112 320 112 288
WIRE -240 336 -240 304
WIRE -48 368 -48 288
WIRE 384 368 384 160
WIRE 384 368 -48 368
FLAG 112 320 0
FLAG -48 80 0
FLAG 416 160 Vout
IOPIN 416 160 Out
FLAG 224 16 0
FLAG 224 304 0
FLAG -240 336 0
SYMBOL OpAmps\\LM741 224 96 R0
SYMATTR InstName U1
SYMBOL cap 16 192 R270
WINDOW 0 32 32 VTop 2
WINDOW 3 0 32 VBottom 2
SYMATTR InstName C_2
SYMATTR Value 0.1591µ
SYMBOL res 128 304 R180
WINDOW 0 36 76 Left 2
WINDOW 3 36 40 Left 2
SYMATTR InstName R_2
SYMATTR Value 1k
SYMBOL cap -144 192 R270
WINDOW 0 32 32 VTop 2
WINDOW 3 0 32 VBottom 2
SYMATTR InstName C_1
SYMATTR Value 0.1591µ
SYMBOL res -32 304 R180
WINDOW 0 36 76 Left 2
WINDOW 3 36 40 Left 2
SYMATTR InstName R_1
SYMATTR Value 1k
SYMBOL res 80 -64 R90
WINDOW 0 0 56 VBottom 2
WINDOW 3 32 56 VTop 2
SYMATTR InstName R1
SYMATTR Value 1k
SYMBOL voltage 224 128 R180
WINDOW 0 24 96 Left 2
WINDOW 3 24 16 Left 2
WINDOW 123 0 0 Left 0
WINDOW 39 0 0 Left 0
SYMATTR InstName V3
SYMATTR Value 12
SYMBOL voltage 224 304 R180
WINDOW 0 24 96 Left 2
WINDOW 3 24 16 Left 2
WINDOW 123 0 0 Left 0
WINDOW 39 0 0 Left 0
SYMATTR InstName V4
SYMATTR Value 12
SYMBOL res 304 -64 R90
WINDOW 0 0 56 VBottom 2
WINDOW 3 32 56 VTop 2
SYMATTR InstName R2
SYMATTR Value 0.585k
SYMBOL Misc\\battery -240 208 R0
WINDOW 123 24 132 Left 2
WINDOW 39 0 0 Left 0
SYMATTR InstName V2
SYMATTR Value ""
SYMATTR Value2 AC 5
TEXT -290 374 Left 2 !.ac dec 10 1 100k
