Version 4
SHEET 1 1380 680
WIRE 0 -64 -32 -64
WIRE 144 -64 64 -64
WIRE 240 -64 224 -64
WIRE 288 -64 240 -64
WIRE 240 0 240 -64
WIRE -32 64 -32 -64
WIRE 240 112 240 80
WIRE -32 240 -32 144
WIRE 240 240 240 192
FLAG 240 240 0
FLAG -32 240 0
FLAG 288 -64 Vout_Practical
IOPIN 288 -64 Out
SYMBOL voltage -32 48 R0
WINDOW 123 0 0 Left 0
WINDOW 39 0 0 Left 0
SYMATTR InstName V1
SYMATTR Value SINE(0 10 500)
SYMBOL voltage 240 96 R0
WINDOW 123 0 0 Left 0
WINDOW 39 0 0 Left 0
SYMATTR InstName V2
SYMATTR Value 2
SYMBOL diode 0 -48 R270
WINDOW 0 32 32 VTop 2
WINDOW 3 0 32 VBottom 2
SYMATTR InstName D1
SYMBOL res 224 -16 R0
SYMATTR InstName R1
SYMATTR Value 1k
SYMBOL res 240 -80 R90
WINDOW 0 0 56 VBottom 2
WINDOW 3 32 56 VTop 2
SYMATTR InstName R3
SYMATTR Value 1k
TEXT 16 -128 Left 2 ;using Practical Diode
TEXT 72 320 Left 2 !.tran 10ms
