Version 4
SHEET 1 880 680
WIRE 224 -176 96 -176
WIRE 416 -176 304 -176
WIRE 240 -80 240 -112
WIRE 240 64 240 0
WIRE -48 80 -112 80
WIRE 96 80 96 -176
WIRE 96 80 32 80
WIRE 208 80 96 80
WIRE 416 96 416 -176
WIRE 416 96 272 96
WIRE 464 96 416 96
WIRE 208 112 96 112
WIRE 96 160 96 112
WIRE 240 160 240 128
WIRE -112 192 -112 80
WIRE 96 304 96 240
WIRE 240 304 240 240
FLAG 96 304 0
FLAG 240 304 0
FLAG -112 192 0
FLAG 240 -112 0
FLAG 464 96 Vout
IOPIN 464 96 Out
SYMBOL OpAmps\\LM741 240 32 R0
SYMATTR InstName U1
SYMBOL res 48 64 R90
WINDOW 0 0 56 VBottom 2
WINDOW 3 32 56 VTop 2
SYMATTR InstName R1
SYMATTR Value 1k
SYMBOL voltage 240 256 R180
WINDOW 123 0 0 Left 0
WINDOW 39 0 0 Left 0
SYMATTR InstName V1
SYMATTR Value 12
SYMBOL voltage 240 16 R180
WINDOW 0 24 96 Left 2
WINDOW 3 24 16 Left 2
WINDOW 123 0 0 Left 0
WINDOW 39 0 0 Left 0
SYMATTR InstName V2
SYMATTR Value 12
SYMBOL voltage 96 144 R0
WINDOW 123 0 0 Left 0
WINDOW 39 0 0 Left 0
SYMATTR InstName V3
SYMATTR Value 1
SYMBOL res 320 -192 R90
WINDOW 0 0 56 VBottom 2
WINDOW 3 32 56 VTop 2
SYMATTR InstName R2
SYMATTR Value {R}
TEXT 320 200 Left 2 !.step param R 1k 9k 1k
TEXT -132 328 Left 2 !.tran 0.1
